<?xml version="1.0" encoding="ISO-8859-1"?>
<febio_spec version="4.0">
	<Module type="solid"/>
	<Control><analysis>STATIC</analysis><time_steps>45</time_steps><step_size>0.0222222</step_size><plot_zero_state>1</plot_zero_state><plot_level>PLOT_MAJOR_ITRS</plot_level><output_level>OUTPUT_MAJOR_ITRS</output_level><time_stepper type="default"><max_retries>12</max_retries><opt_iter>11</opt_iter><dtmin>0</dtmin><dtmax>0.0222222</dtmax><cutback>0.5</cutback></time_stepper><solver type="solid"><sy
	<Material>
		<material id="1" name="Flesh_soft_tissue" type="neo-Hookean"><density>1</density><E>0.8</E><v>0.35</v></material>
		<material id="2" name="Cortical_bone_stiff" type="neo-Hookean"><density>1</density><E>3000</E><v>0.3</v></material>
		<material id="3" name="Ankle_joint_pad" type="neo-Hookean"><density>1</density><E>0.35</E><v>0.35</v></material>
		<material id="4" name="Heel_pad_soft" type="neo-Hookean"><density>1</density><E>0.18</E><v>0.42</v></material>
		<material id="5" name="Forefoot_pad_soft" type="neo-Hookean"><density>1</density><E>0.22</E><v>0.42</v></material>
		<material id="6" name="Ankle_ligament_collar" type="neo-Hookean"><density>1</density><E>4.0</E><v>0.35</v></material>
		<material id="7" name="Plantar_fascia_band" type="neo-Hookean"><density>1</density><E>8.0</E><v>0.35</v></material>
		<material id="8" name="Achilles_like_band" type="neo-Hookean"><density>1</density><E>6.0</E><v>0.35</v></material>
		<material id="9" name="Stiff_fixed_floor" type="neo-Hookean"><density>1</density><E>1000</E><v>0.3</v></material>
	</Material>
	<Mesh>
		<Nodes name="all_nodes">
			<node id="1">0,-0.45,0</node>
			<node id="2">0.125,-0.45,0</node>
			<node id="3">0.125,-0.3375,0</node>
			<node id="4">0,-0.3375,0</node>
			<node id="5">0,-0.45,0.09</node>
			<node id="6">0.125,-0.45,0.09</node>
			<node id="7">0.125,-0.3375,0.09</node>
			<node id="8">0,-0.3375,0.09</node>
			<node id="9">0.25,-0.45,0</node>
			<node id="10">0.25,-0.3375,0</node>
			<node id="11">0.25,-0.45,0.09</node>
			<node id="12">0.25,-0.3375,0.09</node>
			<node id="13">0.375,-0.45,0</node>
			<node id="14">0.375,-0.3375,0</node>
			<node id="15">0.375,-0.45,0.09</node>
			<node id="16">0.375,-0.3375,0.09</node>
			<node id="17">0.5,-0.45,0</node>
			<node id="18">0.5,-0.3375,0</node>
			<node id="19">0.5,-0.45,0.09</node>
			<node id="20">0.5,-0.3375,0.09</node>
<!-- ... 3510 like lines cut -->
		</Nodes>
		<Elements type="hex8" name="Flesh">
			<elem id="1">33,37,38,34,35,39,40,36</elem>
			<elem id="2">37,41,42,38,39,43,44,40</elem>
			<elem id="3">41,45,46,42,43,47,48,44</elem>
			<elem id="4">45,49,50,46,47,51,52,48</elem>
			<elem id="5">49,53,54,50,51,55,56,52</elem>
			<elem id="6">53,57,58,54,55,59,60,56</elem>
			<elem id="7">57,61,62,58,59,63,64,60</elem>
			<elem id="8">61,65,66,62,63,67,68,64</elem>
			<elem id="9">65,69,70,66,67,71,72,68</elem>
			<elem id="10">69,73,74,70,71,75,76,72</elem>
			<elem id="11">73,77,78,74,75,79,80,76</elem>
			<elem id="12">77,81,82,78,79,83,84,80</elem>
			<elem id="13">81,85,86,82,83,87,88,84</elem>
			<elem id="14">34,38,151,149,36,40,152,150</elem>
			<elem id="15">38,42,153,151,40,44,154,152</elem>
			<elem id="16">42,46,155,153,44,48,156,154</elem>
			<elem id="17">46,50,157,155,48,52,158,156</elem>
			<elem id="18">50,54,159,157,52,56,160,158</elem>
			<elem id="19">54,58,161,159,56,60,162,160</elem>
			<elem id="20">58,62,163,161,60,64,164,162</elem>
<!-- ... 990 like lines cut -->
		</Elements>
		<Elements type="hex8" name="TibiaBone">
			<elem id="1011">1917,1920,1929,1927,1959,1962,1971,1969</elem>
			<elem id="1012">1920,1922,1930,1929,1962,1964,1972,1971</elem>
			<elem id="1013">1922,1924,1931,1930,1964,1966,1973,1972</elem>
			<elem id="1014">1927,1929,1935,1933,1969,1971,1977,1975</elem>
			<elem id="1015">1929,1930,1936,1935,1971,1972,1978,1977</elem>
			<elem id="1016">1930,1931,1937,1936,1972,1973,1979,1978</elem>
			<elem id="1017">1933,1935,1941,1939,1975,1977,1983,1981</elem>
			<elem id="1018">1935,1936,1942,1941,1977,1978,1984,1983</elem>
			<elem id="1019">1936,1937,1943,1942,1978,1979,1985,1984</elem>
			<elem id="1020">1939,1941,1947,1945,1981,1983,1989,1987</elem>
			<elem id="1021">1941,1942,1948,1947,1983,1984,1990,1989</elem>
			<elem id="1022">1942,1943,1949,1948,1984,1985,1991,1990</elem>
			<elem id="1023">1959,1962,1971,1969,2001,2004,2013,2011</elem>
			<elem id="1024">1962,1964,1972,1971,2004,2006,2014,2013</elem>
			<elem id="1025">1964,1966,1973,1972,2006,2008,2015,2014</elem>
			<elem id="1026">1969,1971,1977,1975,2011,2013,2019,2017</elem>
			<elem id="1027">1971,1972,1978,1977,2013,2014,2020,2019</elem>
			<elem id="1028">1972,1973,1979,1978,2014,2015,2021,2020</elem>
			<elem id="1029">1975,1977,1983,1981,2017,2019,2025,2023</elem>
			<elem id="1030">1977,1978,1984,1983,2019,2020,2026,2025</elem>
<!-- ... 292 like lines cut -->
		</Elements>
		<Elements type="hex8" name="FootBone">
			<elem id="1323">665,666,699,698,962,963,996,995</elem>
			<elem id="1324">666,667,700,699,963,964,997,996</elem>
			<elem id="1325">667,668,701,700,964,965,998,997</elem>
			<elem id="1326">668,669,702,701,965,966,999,998</elem>
			<elem id="1327">669,670,703,702,966,967,1000,999</elem>
			<elem id="1328">670,671,704,703,967,968,1001,1000</elem>
			<elem id="1329">671,672,705,704,968,969,1002,1001</elem>
			<elem id="1330">672,673,706,705,969,970,1003,1002</elem>
			<elem id="1331">673,674,707,706,970,971,1004,1003</elem>
			<elem id="1332">674,675,708,707,971,972,1005,1004</elem>
			<elem id="1333">675,676,709,708,972,973,1006,1005</elem>
			<elem id="1334">676,677,710,709,973,974,1007,1006</elem>
			<elem id="1335">677,678,711,710,974,975,1008,1007</elem>
			<elem id="1336">678,679,712,711,975,976,1009,1008</elem>
			<elem id="1337">679,680,713,712,976,977,1010,1009</elem>
			<elem id="1338">680,681,714,713,977,978,1011,1010</elem>
			<elem id="1339">681,682,715,714,978,979,1012,1011</elem>
			<elem id="1340">682,683,716,715,979,980,1013,1012</elem>
			<elem id="1341">683,684,717,716,980,981,1014,1013</elem>
			<elem id="1342">684,685,718,717,981,982,1015,1014</elem>
<!-- ... 164 like lines cut -->
		</Elements>
		<Elements type="hex8" name="JointPad">
			<elem id="1507">1263,1264,1297,1296,1560,1561,1594,1593</elem>
			<elem id="1508">1264,1265,1298,1297,1561,1562,1595,1594</elem>
			<elem id="1509">1265,1266,1299,1298,1562,1563,1596,1595</elem>
			<elem id="1510">1266,1267,1300,1299,1563,1564,1597,1596</elem>
			<elem id="1511">1267,1268,1301,1300,1564,1565,1598,1597</elem>
			<elem id="1512">1296,1297,1330,1329,1593,1594,1627,1626</elem>
			<elem id="1513">1297,1298,1331,1330,1594,1595,1628,1627</elem>
			<elem id="1514">1298,1299,1332,1331,1595,1596,1629,1628</elem>
			<elem id="1515">1299,1300,1333,1332,1596,1597,1630,1629</elem>
			<elem id="1516">1300,1301,1334,1333,1597,1598,1631,1630</elem>
			<elem id="1517">1329,1330,1363,1362,1626,1627,1660,1659</elem>
			<elem id="1518">1330,1331,1364,1363,1627,1628,1661,1660</elem>
			<elem id="1519">1331,1332,1365,1364,1628,1629,1662,1661</elem>
			<elem id="1520">1332,1333,1366,1365,1629,1630,1663,1662</elem>
			<elem id="1521">1333,1334,1367,1366,1630,1631,1664,1663</elem>
			<elem id="1522">1362,1363,1396,1395,1659,1660,1693,1692</elem>
			<elem id="1523">1363,1364,1397,1396,1660,1661,1694,1693</elem>
			<elem id="1524">1364,1365,1398,1397,1661,1662,1695,1694</elem>
			<elem id="1525">1365,1366,1399,1398,1662,1663,1696,1695</elem>
			<elem id="1526">1366,1367,1400,1399,1663,1664,1697,1696</elem>
<!-- ... 80 like lines cut -->
		</Elements>
		<Elements type="hex8" name="HeelPad">
			<elem id="1607">1,2,3,4,5,6,7,8</elem>
			<elem id="1608">2,9,10,3,6,11,12,7</elem>
			<elem id="1609">9,13,14,10,11,15,16,12</elem>
			<elem id="1610">13,17,18,14,15,19,20,16</elem>
			<elem id="1611">17,21,22,18,19,23,24,20</elem>
			<elem id="1612">21,25,26,22,23,27,28,24</elem>
			<elem id="1613">25,29,30,26,27,31,32,28</elem>
			<elem id="1614">29,33,34,30,31,35,36,32</elem>
			<elem id="1615">4,3,133,134,8,7,135,136</elem>
			<elem id="1616">3,10,137,133,7,12,138,135</elem>
			<elem id="1617">10,14,139,137,12,16,140,138</elem>
			<elem id="1618">14,18,141,139,16,20,142,140</elem>
			<elem id="1619">18,22,143,141,20,24,144,142</elem>
			<elem id="1620">22,26,145,143,24,28,146,144</elem>
			<elem id="1621">26,30,147,145,28,32,148,146</elem>
			<elem id="1622">30,34,149,147,32,36,150,148</elem>
			<elem id="1623">134,133,199,200,136,135,201,202</elem>
			<elem id="1624">133,137,203,199,135,138,204,201</elem>
			<elem id="1625">137,139,205,203,138,140,206,204</elem>
			<elem id="1626">139,141,207,205,140,142,208,206</elem>
<!-- ... 92 like lines cut -->
		</Elements>
		<Elements type="hex8" name="ForefootPad">
			<elem id="1719">85,89,90,86,87,91,92,88</elem>
			<elem id="1720">89,93,94,90,91,95,96,92</elem>
			<elem id="1721">93,97,98,94,95,99,100,96</elem>
			<elem id="1722">97,101,102,98,99,103,104,100</elem>
			<elem id="1723">101,105,106,102,103,107,108,104</elem>
			<elem id="1724">105,109,110,106,107,111,112,108</elem>
			<elem id="1725">109,113,114,110,111,115,116,112</elem>
			<elem id="1726">113,117,118,114,115,119,120,116</elem>
			<elem id="1727">117,121,122,118,119,123,124,120</elem>
			<elem id="1728">121,125,126,122,123,127,128,124</elem>
			<elem id="1729">125,129,130,126,127,131,132,128</elem>
			<elem id="1730">86,90,177,175,88,92,178,176</elem>
			<elem id="1731">90,94,179,177,92,96,180,178</elem>
			<elem id="1732">94,98,181,179,96,100,182,180</elem>
			<elem id="1733">98,102,183,181,100,104,184,182</elem>
			<elem id="1734">102,106,185,183,104,108,186,184</elem>
			<elem id="1735">106,110,187,185,108,112,188,186</elem>
			<elem id="1736">110,114,189,187,112,116,190,188</elem>
			<elem id="1737">114,118,191,189,116,120,192,190</elem>
			<elem id="1738">118,122,193,191,120,124,194,192</elem>
<!-- ... 124 like lines cut -->
		</Elements>
		<Elements type="hex8" name="AnkleCollar">
			<elem id="1863">904,906,907,905,1201,1203,1204,1202</elem>
			<elem id="1864">906,908,909,907,1203,1205,1206,1204</elem>
			<elem id="1865">908,910,911,909,1205,1207,1208,1206</elem>
			<elem id="1866">910,912,913,911,1207,1209,1210,1208</elem>
			<elem id="1867">912,914,915,913,1209,1211,1212,1210</elem>
			<elem id="1868">914,916,917,915,1211,1213,1214,1212</elem>
			<elem id="1869">916,918,919,917,1213,1215,1216,1214</elem>
			<elem id="1870">918,920,921,919,1215,1217,1218,1216</elem>
			<elem id="1871">920,922,923,921,1217,1219,1220,1218</elem>
			<elem id="1872">922,924,925,923,1219,1221,1222,1220</elem>
			<elem id="1873">905,907,965,964,1202,1204,1262,1261</elem>
			<elem id="1874">907,909,966,965,1204,1206,1263,1262</elem>
			<elem id="1875">909,911,967,966,1206,1208,1264,1263</elem>
			<elem id="1876">911,913,968,967,1208,1210,1265,1264</elem>
			<elem id="1877">913,915,969,968,1210,1212,1266,1265</elem>
			<elem id="1878">915,917,970,969,1212,1214,1267,1266</elem>
			<elem id="1879">917,919,971,970,1214,1216,1268,1267</elem>
			<elem id="1880">919,921,972,971,1216,1218,1269,1268</elem>
			<elem id="1881">921,923,973,972,1218,1220,1270,1269</elem>
			<elem id="1882">923,925,974,973,1220,1222,1271,1270</elem>
<!-- ... 174 like lines cut -->
		</Elements>
		<Elements type="hex8" name="PlantarFascia">
			<elem id="2057">142,144,210,208,665,666,699,698</elem>
			<elem id="2058">144,146,212,210,666,667,700,699</elem>
			<elem id="2059">146,148,214,212,667,668,701,700</elem>
			<elem id="2060">148,150,216,214,668,669,702,701</elem>
			<elem id="2061">150,152,218,216,669,670,703,702</elem>
			<elem id="2062">152,154,220,218,670,671,704,703</elem>
			<elem id="2063">154,156,222,220,671,672,705,704</elem>
			<elem id="2064">156,158,224,222,672,673,706,705</elem>
			<elem id="2065">158,160,226,224,673,674,707,706</elem>
			<elem id="2066">160,162,228,226,674,675,708,707</elem>
			<elem id="2067">162,164,230,228,675,676,709,708</elem>
			<elem id="2068">164,166,232,230,676,677,710,709</elem>
			<elem id="2069">166,168,234,232,677,678,711,710</elem>
			<elem id="2070">168,170,236,234,678,679,712,711</elem>
			<elem id="2071">170,172,238,236,679,680,713,712</elem>
			<elem id="2072">172,174,240,238,680,681,714,713</elem>
			<elem id="2073">174,176,242,240,681,682,715,714</elem>
			<elem id="2074">176,178,244,242,682,683,716,715</elem>
			<elem id="2075">178,180,246,244,683,684,717,716</elem>
			<elem id="2076">180,182,248,246,684,685,718,717</elem>
<!-- ... 80 like lines cut -->
		</Elements>
		<Elements type="hex8" name="AchillesBand">
			<elem id="2157">2044,2043,2053,2054,2086,2085,2095,2096</elem>
			<elem id="2158">2054,2053,2059,2060,2096,2095,2101,2102</elem>
			<elem id="2159">2060,2059,2065,2066,2102,2101,2107,2108</elem>
			<elem id="2160">2066,2065,2071,2072,2108,2107,2113,2114</elem>
			<elem id="2161">2086,2085,2095,2096,2128,2127,2137,2138</elem>
			<elem id="2162">2096,2095,2101,2102,2138,2137,2143,2144</elem>
			<elem id="2163">2102,2101,2107,2108,2144,2143,2149,2150</elem>
			<elem id="2164">2108,2107,2113,2114,2150,2149,2155,2156</elem>
			<elem id="2165">2128,2127,2137,2138,2170,2169,2179,2180</elem>
			<elem id="2166">2138,2137,2143,2144,2180,2179,2185,2186</elem>
			<elem id="2167">2144,2143,2149,2150,2186,2185,2191,2192</elem>
			<elem id="2168">2150,2149,2155,2156,2192,2191,2197,2198</elem>
			<elem id="2169">2170,2169,2179,2180,2212,2211,2221,2222</elem>
			<elem id="2170">2180,2179,2185,2186,2222,2221,2227,2228</elem>
			<elem id="2171">2186,2185,2191,2192,2228,2227,2233,2234</elem>
			<elem id="2172">2192,2191,2197,2198,2234,2233,2239,2240</elem>
			<elem id="2173">2212,2211,2221,2222,2254,2253,2263,2264</elem>
			<elem id="2174">2222,2221,2227,2228,2264,2263,2269,2270</elem>
			<elem id="2175">2228,2227,2233,2234,2270,2269,2275,2276</elem>
			<elem id="2176">2234,2233,2239,2240,2276,2275,2281,2282</elem>
<!-- ... 4 like lines cut -->
		</Elements>
		<Elements type="hex8" name="Floor">
			<elem id="2181">3049,3050,3051,3052,3053,3054,3055,3056</elem>
			<elem id="2182">3050,3057,3058,3051,3054,3059,3060,3055</elem>
			<elem id="2183">3057,3061,3062,3058,3059,3063,3064,3060</elem>
			<elem id="2184">3061,3065,3066,3062,3063,3067,3068,3064</elem>
			<elem id="2185">3065,3069,3070,3066,3067,3071,3072,3068</elem>
			<elem id="2186">3069,3073,3074,3070,3071,3075,3076,3072</elem>
			<elem id="2187">3073,3077,3078,3074,3075,3079,3080,3076</elem>
			<elem id="2188">3077,3081,3082,3078,3079,3083,3084,3080</elem>
			<elem id="2189">3081,3085,3086,3082,3083,3087,3088,3084</elem>
			<elem id="2190">3085,3089,3090,3086,3087,3091,3092,3088</elem>
			<elem id="2191">3089,3093,3094,3090,3091,3095,3096,3092</elem>
			<elem id="2192">3093,3097,3098,3094,3095,3099,3100,3096</elem>
			<elem id="2193">3097,3101,3102,3098,3099,3103,3104,3100</elem>
			<elem id="2194">3101,3105,3106,3102,3103,3107,3108,3104</elem>
			<elem id="2195">3105,3109,3110,3106,3107,3111,3112,3108</elem>
			<elem id="2196">3109,3113,3114,3110,3111,3115,3116,3112</elem>
			<elem id="2197">3113,3117,3118,3114,3115,3119,3120,3116</elem>
			<elem id="2198">3117,3121,3122,3118,3119,3123,3124,3120</elem>
			<elem id="2199">3121,3125,3126,3122,3123,3127,3128,3124</elem>
			<elem id="2200">3125,3129,3130,3126,3127,3131,3132,3128</elem>
<!-- ... 300 like lines cut -->
		</Elements>
		<Surface name="FootSoleContact">
			<quad4 id="1">33,34,38,37</quad4>
			<quad4 id="2">37,38,42,41</quad4>
			<quad4 id="3">41,42,46,45</quad4>
			<quad4 id="4">45,46,50,49</quad4>
			<quad4 id="5">49,50,54,53</quad4>
			<quad4 id="6">53,54,58,57</quad4>
			<quad4 id="7">57,58,62,61</quad4>
			<quad4 id="8">61,62,66,65</quad4>
			<quad4 id="9">65,66,70,69</quad4>
			<quad4 id="10">69,70,74,73</quad4>
			<quad4 id="11">73,74,78,77</quad4>
			<quad4 id="12">77,78,82,81</quad4>
			<quad4 id="13">81,82,86,85</quad4>
			<quad4 id="14">34,149,151,38</quad4>
			<quad4 id="15">38,151,153,42</quad4>
			<quad4 id="16">42,153,155,46</quad4>
			<quad4 id="17">46,155,157,50</quad4>
			<quad4 id="18">50,157,159,54</quad4>
			<quad4 id="19">54,159,161,58</quad4>
			<quad4 id="20">58,161,163,62</quad4>
<!-- ... 236 like lines cut -->
		</Surface>
		<Surface name="TibiaTopDriveSurface">
			<quad4 id="1">3009,3012,3021,3019</quad4>
			<quad4 id="2">3012,3014,3022,3021</quad4>
			<quad4 id="3">3014,3016,3023,3022</quad4>
			<quad4 id="4">3019,3021,3027,3025</quad4>
			<quad4 id="5">3021,3022,3028,3027</quad4>
			<quad4 id="6">3022,3023,3029,3028</quad4>
			<quad4 id="7">3025,3027,3033,3031</quad4>
			<quad4 id="8">3027,3028,3034,3033</quad4>
			<quad4 id="9">3028,3029,3035,3034</quad4>
			<quad4 id="10">3031,3033,3039,3037</quad4>
			<quad4 id="11">3033,3034,3040,3039</quad4>
			<quad4 id="12">3034,3035,3041,3040</quad4>
		</Surface>
		<Surface name="FloorTopContact">
			<quad4 id="1">3427,3428,3429,3430</quad4>
			<quad4 id="2">3428,3431,3432,3429</quad4>
			<quad4 id="3">3431,3433,3434,3432</quad4>
			<quad4 id="4">3433,3435,3436,3434</quad4>
			<quad4 id="5">3435,3437,3438,3436</quad4>
			<quad4 id="6">3437,3439,3440,3438</quad4>
			<quad4 id="7">3439,3441,3442,3440</quad4>
			<quad4 id="8">3441,3443,3444,3442</quad4>
			<quad4 id="9">3443,3445,3446,3444</quad4>
			<quad4 id="10">3445,3447,3448,3446</quad4>
			<quad4 id="11">3447,3449,3450,3448</quad4>
			<quad4 id="12">3449,3451,3452,3450</quad4>
			<quad4 id="13">3451,3453,3454,3452</quad4>
			<quad4 id="14">3453,3455,3456,3454</quad4>
			<quad4 id="15">3455,3457,3458,3456</quad4>
			<quad4 id="16">3457,3459,3460,3458</quad4>
			<quad4 id="17">3459,3461,3462,3460</quad4>
			<quad4 id="18">3461,3463,3464,3462</quad4>
			<quad4 id="19">3463,3465,3466,3464</quad4>
			<quad4 id="20">3465,3467,3468,3466</quad4>
<!-- ... 140 like lines cut -->
		</Surface>
		<NodeSet name="FloorFixedNodes">
			3049,3050,3051,3052,3053,3054,3055,3056,3057,3058,3059,3060,3061,3062,3063,3064,3065,3066,3067,3068
			3069,3070,3071,3072,3073,3074,3075,3076,3077,3078,3079,3080,3081,3082,3083,3084,3085,3086,3087,3088
			3089,3090,3091,3092,3093,3094,3095,3096,3097,3098,3099,3100,3101,3102,3103,3104,3105,3106,3107,3108
			3109,3110,3111,3112,3113,3114,3115,3116,3117,3118,3119,3120,3121,3122,3123,3124,3125,3126,3127,3128
			3129,3130,3131,3132,3133,3134,3135,3136,3137,3138,3139,3140,3141,3142,3143,3144,3145,3146,3147,3148
			3149,3150,3151,3152,3153,3154,3155,3156,3157,3158,3159,3160,3161,3162,3163,3164,3165,3166,3167,3168
			3169,3170,3171,3172,3173,3174,3175,3176,3177,3178,3179,3180,3181,3182,3183,3184,3185,3186,3187,3188
			3189,3190,3191,3192,3193,3194,3195,3196,3197,3198,3199,3200,3201,3202,3203,3204,3205,3206,3207,3208
			3209,3210,3211,3212,3213,3214,3215,3216,3217,3218,3219,3220,3221,3222,3223,3224,3225,3226,3227,3228
			3229,3230,3231,3232,3233,3234,3235,3236,3237,3238,3239,3240,3241,3242,3243,3244,3245,3246,3247,3248
			3249,3250,3251,3252,3253,3254,3255,3256,3257,3258,3259,3260,3261,3262,3263,3264,3265,3266,3267,3268
			3269,3270,3271,3272,3273,3274,3275,3276,3277,3278,3279,3280,3281,3282,3283,3284,3285,3286,3287,3288
			3289,3290,3291,3292,3293,3294,3295,3296,3297,3298,3299,3300,3301,3302,3303,3304,3305,3306,3307,3308
			3309,3310,3311,3312,3313,3314,3315,3316,3317,3318,3319,3320,3321,3322,3323,3324,3325,3326,3327,3328
			3329,3330,3331,3332,3333,3334,3335,3336,3337,3338,3339,3340,3341,3342,3343,3344,3345,3346,3347,3348
			3349,3350,3351,3352,3353,3354,3355,3356,3357,3358,3359,3360,3361,3362,3363,3364,3365,3366,3367,3368
			3369,3370,3371,3372,3373,3374,3375,3376,3377,3378,3379,3380,3381,3382,3383,3384,3385,3386,3387,3388
			3389,3390,3391,3392,3393,3394,3395,3396,3397,3398,3399,3400,3401,3402,3403,3404,3405,3406,3407,3408
			3409,3410,3411,3412,3413,3414,3415,3416,3417,3418,3419,3420,3421,3422,3423,3424,3425,3426,3427,3428
			3429,3430,3431,3432,3433,3434,3435,3436,3437,3438,3439,3440,3441,3442,3443,3444,3445,3446,3447,3448
<!-- ... 5 like lines cut -->
		</NodeSet>
		<SurfacePair name="FootFloorContact"><primary>FootSoleContact</primary><secondary>FloorTopContact</secondary></SurfacePair>
	</Mesh>
	<MeshDomains><SolidDomain name="Flesh" mat="Flesh_soft_tissue"/><SolidDomain name="TibiaBone" mat="Cortical_bone_stiff"/><SolidDomain name="FootBone" mat="Cortical_bone_stiff"/><SolidDomain name="JointPad" mat="Ankle_joint_pad"/><SolidDomain name="HeelPad" mat="Heel_pad_soft"/><SolidDomain name="ForefootPad" mat="Forefoot_pad_soft"/><SolidDomain name="AnkleCollar" mat="Ankle_ligament_collar"/><So
	<Boundary><bc name="FixedFloor" node_set="FloorFixedNodes" type="zero displacement"><x_dof>1</x_dof><y_dof>1</y_dof><z_dof>1</z_dof></bc><bc name="TibiaNoLateralDrift" node_set="@surface:TibiaTopDriveSurface" type="zero displacement"><x_dof>0</x_dof><y_dof>1</y_dof><z_dof>0</z_dof></bc><bc name="TibiaForwardDrive" node_set="@surface:TibiaTopDriveSurface" type="prescribed displacement"><dof>x</dof
	<Contact><contact type="sliding-elastic" surface_pair="FootFloorContact"><penalty>1</penalty><auto_penalty>1</auto_penalty><two_pass>0</two_pass><laugon>0</laugon><fric_coeff>0.35</fric_coeff><symmetric_stiffness>0</symmetric_stiffness></contact></Contact>
	<LoadData><load_controller id="1" name="forward_progression" type="loadcurve"><interpolate>LINEAR</interpolate><extend>CONSTANT</extend><points><pt>0,0</pt><pt>1,0.28</pt></points></load_controller><load_controller id="2" name="stance_vertical_path" type="loadcurve"><interpolate>LINEAR</interpolate><extend>CONSTANT</extend><points><pt>0,0</pt><pt>0.2,-0.04</pt><pt>0.65,-0.115</pt><pt>1,-0.07</pt>
	<Output><plotfile type="febio"><var type="displacement"/><var type="stress"/><var type="relative volume"/><var type="contact pressure"/><var type="contact force"/><var type="contact gap"/></plotfile></Output>
</febio_spec>
